
---------- Begin Simulation Statistics ----------
final_tick                               118204828672                       # Number of ticks from beginning of simulation (restored from checkpoints and never reset)
host_inst_rate                                 270644                       # Simulator instruction rate (inst/s)
host_mem_usage                                8595016                       # Number of bytes of host memory used
host_op_rate                                   323729                       # Simulator op (including micro ops) rate (op/s)
host_seconds                                   964.82                       # Real time elapsed on the host
host_tick_rate                              122514698                       # Simulator tick rate (ticks/s)
sim_freq                                 1000000000000                       # Frequency of simulated ticks
sim_insts                                   261123586                       # Number of instructions simulated
sim_ops                                     312340919                       # Number of ops (including micro ops) simulated
sim_seconds                                  0.118205                       # Number of seconds simulated
sim_ticks                                118204828672                       # Number of ticks simulated
system.cpu.cc_regfile_reads                  62626221                       # number of cc regfile reads
system.cpu.cc_regfile_writes                 61925989                       # number of cc regfile writes
system.cpu.committedInsts                   261123586                       # Number of Instructions Simulated
system.cpu.committedOps                     312340919                       # Number of Ops (including micro ops) Simulated
system.cpu.cpi                               0.951004                       # CPI: Cycles Per Instruction
system.cpu.cpi_total                         0.951004                       # CPI: Total CPI of All Threads
system.cpu.idleCycles                         7220553                       # Total number of cycles that the CPU has spent unscheduled due to idling
system.cpu.iew.branchMispredicts              1872519                       # Number of branch mispredicts detected at execute
system.cpu.iew.exec_branches                 33205039                       # Number of branches executed
system.cpu.iew.exec_nop                        244239                       # number of nop insts executed
system.cpu.iew.exec_rate                     1.316001                       # Inst execution rate
system.cpu.iew.exec_refs                    105343722                       # number of memory reference insts executed
system.cpu.iew.exec_stores                   37282887                       # Number of stores executed
system.cpu.iew.exec_swp                             0                       # number of swp insts executed
system.cpu.iew.iewBlockCycles                 8089588                       # Number of cycles IEW is blocking
system.cpu.iew.iewDispLoadInsts              67822985                       # Number of dispatched load instructions
system.cpu.iew.iewDispNonSpecInsts             177305                       # Number of dispatched non-speculative instructions
system.cpu.iew.iewDispSquashedInsts                 0                       # Number of squashed instructions skipped by dispatch
system.cpu.iew.iewDispStoreInsts             38642653                       # Number of dispatched store instructions
system.cpu.iew.iewDispatchedInsts           335652048                       # Number of instructions dispatched to IQ
system.cpu.iew.iewExecLoadInsts              68060835                       # Number of load instructions executed
system.cpu.iew.iewExecSquashedInsts           4173709                       # Number of squashed instructions skipped in execute
system.cpu.iew.iewExecutedInsts             326801785                       # Number of executed instructions
system.cpu.iew.iewIQFullEvents                 535603                       # Number of times the IQ has become full, causing a stall
system.cpu.iew.iewIdleCycles                        0                       # Number of cycles IEW is idle
system.cpu.iew.iewLSQFullEvents                 60249                       # Number of times the LSQ has become full, causing a stall
system.cpu.iew.iewSquashCycles                1808759                       # Number of cycles IEW is squashing
system.cpu.iew.iewUnblockCycles                751576                       # Number of cycles IEW is unblocking
system.cpu.iew.memOrderViolationEvents          22480                       # Number of memory order violations
system.cpu.iew.predictedNotTakenIncorrect      1044370                       # Number of branches that were predicted not taken incorrectly
system.cpu.iew.predictedTakenIncorrect         828149                       # Number of branches that were predicted taken incorrectly
system.cpu.iew.wb_consumers                 304470639                       # num instructions consuming a value
system.cpu.iew.wb_count                     322478486                       # cumulative count of insts written-back
system.cpu.iew.wb_fanout                     0.639239                       # average fanout of values written-back
system.cpu.iew.wb_producers                 194629444                       # num instructions producing a value
system.cpu.iew.wb_rate                       1.298591                       # insts written-back per cycle
system.cpu.iew.wb_sent                      322836204                       # cumulative count of insts sent to commit
system.cpu.int_regfile_reads                359559379                       # number of integer regfile reads
system.cpu.int_regfile_writes               212814378                       # number of integer regfile writes
system.cpu.ipc                               1.051521                       # IPC: Instructions Per Cycle
system.cpu.ipc_total                         1.051521                       # IPC: Total IPC of All Threads
system.cpu.iq.FU_type_0::No_OpClass           4664349      1.41%      1.41% # Type of FU issued
system.cpu.iq.FU_type_0::IntAlu             179317138     54.18%     55.59% # Type of FU issued
system.cpu.iq.FU_type_0::IntMult              1824767      0.55%     56.14% # Type of FU issued
system.cpu.iq.FU_type_0::IntDiv                 91819      0.03%     56.17% # Type of FU issued
system.cpu.iq.FU_type_0::FloatAdd                 604      0.00%     56.17% # Type of FU issued
system.cpu.iq.FU_type_0::FloatCmp                   4      0.00%     56.17% # Type of FU issued
system.cpu.iq.FU_type_0::FloatCvt                 605      0.00%     56.17% # Type of FU issued
system.cpu.iq.FU_type_0::FloatMult                  0      0.00%     56.17% # Type of FU issued
system.cpu.iq.FU_type_0::FloatMultAcc               0      0.00%     56.17% # Type of FU issued
system.cpu.iq.FU_type_0::FloatDiv                 606      0.00%     56.17% # Type of FU issued
system.cpu.iq.FU_type_0::FloatMisc               6518      0.00%     56.17% # Type of FU issued
system.cpu.iq.FU_type_0::FloatSqrt                  0      0.00%     56.17% # Type of FU issued
system.cpu.iq.FU_type_0::SimdAdd             16019993      4.84%     61.01% # Type of FU issued
system.cpu.iq.FU_type_0::SimdAddAcc           3397414      1.03%     62.04% # Type of FU issued
system.cpu.iq.FU_type_0::SimdAlu              5257557      1.59%     63.62% # Type of FU issued
system.cpu.iq.FU_type_0::SimdCmp              1660055      0.50%     64.13% # Type of FU issued
system.cpu.iq.FU_type_0::SimdCvt                    1      0.00%     64.13% # Type of FU issued
system.cpu.iq.FU_type_0::SimdMisc             4556225      1.38%     65.50% # Type of FU issued
system.cpu.iq.FU_type_0::SimdMult              408937      0.12%     65.63% # Type of FU issued
system.cpu.iq.FU_type_0::SimdMultAcc          2871354      0.87%     66.49% # Type of FU issued
system.cpu.iq.FU_type_0::SimdShift            4086908      1.23%     67.73% # Type of FU issued
system.cpu.iq.FU_type_0::SimdShiftAcc               0      0.00%     67.73% # Type of FU issued
system.cpu.iq.FU_type_0::SimdDiv                    0      0.00%     67.73% # Type of FU issued
system.cpu.iq.FU_type_0::SimdSqrt                   0      0.00%     67.73% # Type of FU issued
system.cpu.iq.FU_type_0::SimdFloatAdd               0      0.00%     67.73% # Type of FU issued
system.cpu.iq.FU_type_0::SimdFloatAlu               0      0.00%     67.73% # Type of FU issued
system.cpu.iq.FU_type_0::SimdFloatCmp               0      0.00%     67.73% # Type of FU issued
system.cpu.iq.FU_type_0::SimdFloatCvt               0      0.00%     67.73% # Type of FU issued
system.cpu.iq.FU_type_0::SimdFloatDiv               0      0.00%     67.73% # Type of FU issued
system.cpu.iq.FU_type_0::SimdFloatMisc              0      0.00%     67.73% # Type of FU issued
system.cpu.iq.FU_type_0::SimdFloatMult              0      0.00%     67.73% # Type of FU issued
system.cpu.iq.FU_type_0::SimdFloatMultAcc            0      0.00%     67.73% # Type of FU issued
system.cpu.iq.FU_type_0::SimdFloatSqrt              0      0.00%     67.73% # Type of FU issued
system.cpu.iq.FU_type_0::SimdReduceAdd              0      0.00%     67.73% # Type of FU issued
system.cpu.iq.FU_type_0::SimdReduceAlu              0      0.00%     67.73% # Type of FU issued
system.cpu.iq.FU_type_0::SimdReduceCmp              0      0.00%     67.73% # Type of FU issued
system.cpu.iq.FU_type_0::SimdFloatReduceAdd            0      0.00%     67.73% # Type of FU issued
system.cpu.iq.FU_type_0::SimdFloatReduceCmp            0      0.00%     67.73% # Type of FU issued
system.cpu.iq.FU_type_0::SimdAes                    0      0.00%     67.73% # Type of FU issued
system.cpu.iq.FU_type_0::SimdAesMix                 0      0.00%     67.73% # Type of FU issued
system.cpu.iq.FU_type_0::SimdSha1Hash               0      0.00%     67.73% # Type of FU issued
system.cpu.iq.FU_type_0::SimdSha1Hash2              0      0.00%     67.73% # Type of FU issued
system.cpu.iq.FU_type_0::SimdSha256Hash             0      0.00%     67.73% # Type of FU issued
system.cpu.iq.FU_type_0::SimdSha256Hash2            0      0.00%     67.73% # Type of FU issued
system.cpu.iq.FU_type_0::SimdShaSigma2              0      0.00%     67.73% # Type of FU issued
system.cpu.iq.FU_type_0::SimdShaSigma3              0      0.00%     67.73% # Type of FU issued
system.cpu.iq.FU_type_0::SimdPredAlu                0      0.00%     67.73% # Type of FU issued
system.cpu.iq.FU_type_0::MemRead             69218483     20.91%     88.64% # Type of FU issued
system.cpu.iq.FU_type_0::MemWrite            37592157     11.36%    100.00% # Type of FU issued
system.cpu.iq.FU_type_0::FloatMemRead               0      0.00%    100.00% # Type of FU issued
system.cpu.iq.FU_type_0::FloatMemWrite              0      0.00%    100.00% # Type of FU issued
system.cpu.iq.FU_type_0::IprAccess                  0      0.00%    100.00% # Type of FU issued
system.cpu.iq.FU_type_0::InstPrefetch               0      0.00%    100.00% # Type of FU issued
system.cpu.iq.FU_type_0::total              330975494                       # Type of FU issued
system.cpu.iq.fp_alu_accesses                       0                       # Number of floating point alu accesses
system.cpu.iq.fp_inst_queue_reads                   0                       # Number of floating instruction queue reads
system.cpu.iq.fp_inst_queue_wakeup_accesses            0                       # Number of floating instruction queue wakeup accesses
system.cpu.iq.fp_inst_queue_writes                  0                       # Number of floating instruction queue writes
system.cpu.iq.fu_busy_cnt                    30088583                       # FU busy when requested
system.cpu.iq.fu_busy_rate                   0.090909                       # FU busy rate (busy events/executed inst)
system.cpu.iq.fu_full::No_OpClass                   0      0.00%      0.00% # attempts to use FU when none available
system.cpu.iq.fu_full::IntAlu                 6262205     20.81%     20.81% # attempts to use FU when none available
system.cpu.iq.fu_full::IntMult                 359942      1.20%     22.01% # attempts to use FU when none available
system.cpu.iq.fu_full::IntDiv                   15848      0.05%     22.06% # attempts to use FU when none available
system.cpu.iq.fu_full::FloatAdd                     0      0.00%     22.06% # attempts to use FU when none available
system.cpu.iq.fu_full::FloatCmp                     0      0.00%     22.06% # attempts to use FU when none available
system.cpu.iq.fu_full::FloatCvt                     0      0.00%     22.06% # attempts to use FU when none available
system.cpu.iq.fu_full::FloatMult                    0      0.00%     22.06% # attempts to use FU when none available
system.cpu.iq.fu_full::FloatMultAcc                 0      0.00%     22.06% # attempts to use FU when none available
system.cpu.iq.fu_full::FloatDiv                     0      0.00%     22.06% # attempts to use FU when none available
system.cpu.iq.fu_full::FloatMisc                  860      0.00%     22.06% # attempts to use FU when none available
system.cpu.iq.fu_full::FloatSqrt                    0      0.00%     22.06% # attempts to use FU when none available
system.cpu.iq.fu_full::SimdAdd                1984170      6.59%     28.66% # attempts to use FU when none available
system.cpu.iq.fu_full::SimdAddAcc              981669      3.26%     31.92% # attempts to use FU when none available
system.cpu.iq.fu_full::SimdAlu                 728038      2.42%     34.34% # attempts to use FU when none available
system.cpu.iq.fu_full::SimdCmp                 260506      0.87%     35.21% # attempts to use FU when none available
system.cpu.iq.fu_full::SimdCvt                      0      0.00%     35.21% # attempts to use FU when none available
system.cpu.iq.fu_full::SimdMisc                956612      3.18%     38.39% # attempts to use FU when none available
system.cpu.iq.fu_full::SimdMult                 73674      0.24%     38.63% # attempts to use FU when none available
system.cpu.iq.fu_full::SimdMultAcc             487566      1.62%     40.25% # attempts to use FU when none available
system.cpu.iq.fu_full::SimdShift               243581      0.81%     41.06% # attempts to use FU when none available
system.cpu.iq.fu_full::SimdShiftAcc                 0      0.00%     41.06% # attempts to use FU when none available
system.cpu.iq.fu_full::SimdDiv                      0      0.00%     41.06% # attempts to use FU when none available
system.cpu.iq.fu_full::SimdSqrt                     0      0.00%     41.06% # attempts to use FU when none available
system.cpu.iq.fu_full::SimdFloatAdd                 0      0.00%     41.06% # attempts to use FU when none available
system.cpu.iq.fu_full::SimdFloatAlu                 0      0.00%     41.06% # attempts to use FU when none available
system.cpu.iq.fu_full::SimdFloatCmp                 0      0.00%     41.06% # attempts to use FU when none available
system.cpu.iq.fu_full::SimdFloatCvt                 0      0.00%     41.06% # attempts to use FU when none available
system.cpu.iq.fu_full::SimdFloatDiv                 0      0.00%     41.06% # attempts to use FU when none available
system.cpu.iq.fu_full::SimdFloatMisc                0      0.00%     41.06% # attempts to use FU when none available
system.cpu.iq.fu_full::SimdFloatMult                0      0.00%     41.06% # attempts to use FU when none available
system.cpu.iq.fu_full::SimdFloatMultAcc             0      0.00%     41.06% # attempts to use FU when none available
system.cpu.iq.fu_full::SimdFloatSqrt                0      0.00%     41.06% # attempts to use FU when none available
system.cpu.iq.fu_full::SimdReduceAdd                0      0.00%     41.06% # attempts to use FU when none available
system.cpu.iq.fu_full::SimdReduceAlu                0      0.00%     41.06% # attempts to use FU when none available
system.cpu.iq.fu_full::SimdReduceCmp                0      0.00%     41.06% # attempts to use FU when none available
system.cpu.iq.fu_full::SimdFloatReduceAdd            0      0.00%     41.06% # attempts to use FU when none available
system.cpu.iq.fu_full::SimdFloatReduceCmp            0      0.00%     41.06% # attempts to use FU when none available
system.cpu.iq.fu_full::SimdAes                      0      0.00%     41.06% # attempts to use FU when none available
system.cpu.iq.fu_full::SimdAesMix                   0      0.00%     41.06% # attempts to use FU when none available
system.cpu.iq.fu_full::SimdSha1Hash                 0      0.00%     41.06% # attempts to use FU when none available
system.cpu.iq.fu_full::SimdSha1Hash2                0      0.00%     41.06% # attempts to use FU when none available
system.cpu.iq.fu_full::SimdSha256Hash               0      0.00%     41.06% # attempts to use FU when none available
system.cpu.iq.fu_full::SimdSha256Hash2              0      0.00%     41.06% # attempts to use FU when none available
system.cpu.iq.fu_full::SimdShaSigma2                0      0.00%     41.06% # attempts to use FU when none available
system.cpu.iq.fu_full::SimdShaSigma3                0      0.00%     41.06% # attempts to use FU when none available
system.cpu.iq.fu_full::SimdPredAlu                  0      0.00%     41.06% # attempts to use FU when none available
system.cpu.iq.fu_full::MemRead                 661343      2.20%     43.26% # attempts to use FU when none available
system.cpu.iq.fu_full::MemWrite              17072569     56.74%    100.00% # attempts to use FU when none available
system.cpu.iq.fu_full::FloatMemRead                 0      0.00%    100.00% # attempts to use FU when none available
system.cpu.iq.fu_full::FloatMemWrite                0      0.00%    100.00% # attempts to use FU when none available
system.cpu.iq.fu_full::IprAccess                    0      0.00%    100.00% # attempts to use FU when none available
system.cpu.iq.fu_full::InstPrefetch                 0      0.00%    100.00% # attempts to use FU when none available
system.cpu.iq.int_alu_accesses              296716889                       # Number of integer alu accesses
system.cpu.iq.int_inst_queue_reads          813388790                       # Number of integer instruction queue reads
system.cpu.iq.int_inst_queue_wakeup_accesses    267371117                       # Number of integer instruction queue wakeup accesses
system.cpu.iq.int_inst_queue_writes         300106395                       # Number of integer instruction queue writes
system.cpu.iq.iqInstsAdded                  335230503                       # Number of instructions added to the IQ (excludes non-spec)
system.cpu.iq.iqInstsIssued                 330975494                       # Number of instructions issued
system.cpu.iq.iqNonSpecInstsAdded              177306                       # Number of non-speculative instructions added to the IQ
system.cpu.iq.iqSquashedInstsExamined        23066889                       # Number of squashed instructions iterated over during squash; mainly for profiling
system.cpu.iq.iqSquashedInstsIssued            190793                       # Number of squashed instructions issued
system.cpu.iq.iqSquashedNonSpecRemoved           1164                       # Number of squashed non-spec instructions that were removed
system.cpu.iq.iqSquashedOperandsExamined     19248809                       # Number of squashed operands that are examined and possibly removed from graph
system.cpu.iq.issued_per_cycle::samples     241108920                       # Number of insts issued each cycle
system.cpu.iq.issued_per_cycle::mean         1.372722                       # Number of insts issued each cycle
system.cpu.iq.issued_per_cycle::stdev        1.291742                       # Number of insts issued each cycle
system.cpu.iq.issued_per_cycle::underflows            0      0.00%      0.00% # Number of insts issued each cycle
system.cpu.iq.issued_per_cycle::0            81596425     33.84%     33.84% # Number of insts issued each cycle
system.cpu.iq.issued_per_cycle::1            57214577     23.73%     57.57% # Number of insts issued each cycle
system.cpu.iq.issued_per_cycle::2            51841323     21.50%     79.07% # Number of insts issued each cycle
system.cpu.iq.issued_per_cycle::3            34955227     14.50%     93.57% # Number of insts issued each cycle
system.cpu.iq.issued_per_cycle::4            12578100      5.22%     98.79% # Number of insts issued each cycle
system.cpu.iq.issued_per_cycle::5             2648727      1.10%     99.89% # Number of insts issued each cycle
system.cpu.iq.issued_per_cycle::6              266120      0.11%    100.00% # Number of insts issued each cycle
system.cpu.iq.issued_per_cycle::7                7533      0.00%    100.00% # Number of insts issued each cycle
system.cpu.iq.issued_per_cycle::8                 888      0.00%    100.00% # Number of insts issued each cycle
system.cpu.iq.issued_per_cycle::overflows            0      0.00%    100.00% # Number of insts issued each cycle
system.cpu.iq.issued_per_cycle::min_value            0                       # Number of insts issued each cycle
system.cpu.iq.issued_per_cycle::max_value            8                       # Number of insts issued each cycle
system.cpu.iq.issued_per_cycle::total       241108920                       # Number of insts issued each cycle
system.cpu.iq.rate                           1.332808                       # Inst issue rate
system.cpu.iq.vec_alu_accesses               59682839                       # Number of vector alu accesses
system.cpu.iq.vec_inst_queue_reads          119950494                       # Number of vector instruction queue reads
system.cpu.iq.vec_inst_queue_wakeup_accesses     55107369                       # Number of vector instruction queue wakeup accesses
system.cpu.iq.vec_inst_queue_writes          58390739                       # Number of vector instruction queue writes
system.cpu.l2bus.snoop_filter.hit_multi_requests          241                       # Number of requests hitting in the snoop filter with multiple (>1) holders of the requested data.
system.cpu.l2bus.snoop_filter.hit_multi_snoops           35                       # Number of snoops hitting in the snoop filter with multiple (>1) holders of the requested data.
system.cpu.l2bus.snoop_filter.hit_single_requests      2294479                       # Number of requests hitting in the snoop filter with a single holder of the requested data.
system.cpu.l2bus.snoop_filter.hit_single_snoops       685091                       # Number of snoops hitting in the snoop filter with a single holder of the requested data.
system.cpu.l2bus.snoop_filter.tot_requests      4334275                       # Total number of requests made to the snoop filter.
system.cpu.l2bus.snoop_filter.tot_snoops       685126                       # Total number of snoops made to the snoop filter.
system.cpu.memDep0.conflictingLoads           1278675                       # Number of conflicting loads.
system.cpu.memDep0.conflictingStores          2316461                       # Number of conflicting stores.
system.cpu.memDep0.insertedLoads             67822985                       # Number of loads inserted to the mem dependence unit.
system.cpu.memDep0.insertedStores            38642653                       # Number of stores inserted to the mem dependence unit.
system.cpu.misc_regfile_reads               793807817                       # number of misc regfile reads
system.cpu.misc_regfile_writes                2812182                       # number of misc regfile writes
system.cpu.numCycles                        248329473                       # number of cpu cycles simulated
system.cpu.numWorkItemsCompleted                    0                       # number of work items this cpu completed
system.cpu.numWorkItemsStarted                      0                       # number of work items this cpu started
system.cpu.timesIdled                          323359                       # Number of times that the entire CPU went into an idle state and unscheduled itself
system.cpu.vec_regfile_reads                118620853                       # number of vector regfile reads
system.cpu.vec_regfile_writes                62902725                       # number of vector regfile writes
system.cpu.workload.numSyscalls                  3252                       # Number of system calls
system.membus.snoop_filter.hit_multi_requests            0                       # Number of requests hitting in the snoop filter with multiple (>1) holders of the requested data.
system.membus.snoop_filter.hit_multi_snoops            0                       # Number of snoops hitting in the snoop filter with multiple (>1) holders of the requested data.
system.membus.snoop_filter.hit_single_requests        54473                       # Number of requests hitting in the snoop filter with a single holder of the requested data.
system.membus.snoop_filter.hit_single_snoops            0                       # Number of snoops hitting in the snoop filter with a single holder of the requested data.
system.membus.snoop_filter.tot_requests        140294                       # Total number of requests made to the snoop filter.
system.membus.snoop_filter.tot_snoops               0                       # Total number of snoops made to the snoop filter.
system.clk_domain.clock                           476                       # Clock period in ticks
system.clk_domain.voltage_domain.voltage            1                       # Voltage in Volts
system.cpu.branchPred.lookups                37676685                       # Number of BP lookups
system.cpu.branchPred.condPredicted          27556027                       # Number of conditional branches predicted
system.cpu.branchPred.condIncorrect           1821486                       # Number of conditional branches incorrect
system.cpu.branchPred.BTBLookups             17610145                       # Number of BTB lookups
system.cpu.branchPred.BTBHits                17369926                       # Number of BTB hits
system.cpu.branchPred.BTBHitPct             98.635906                       # BTB Hit Percentage
system.cpu.branchPred.RASUsed                 2653111                       # Number of times the RAS was used to get a target.
system.cpu.branchPred.RASIncorrect                762                       # Number of incorrect RAS predictions.
system.cpu.branchPred.indirectLookups         1080612                       # Number of indirect predictor lookups.
system.cpu.branchPred.indirectHits             828298                       # Number of indirect target hits.
system.cpu.branchPred.indirectMisses           252314                       # Number of indirect misses.
system.cpu.branchPred.indirectMispredicted       185918                       # Number of mispredicted indirect branches.
system.cpu.commit.commitSquashedInsts        20815804                       # The number of squashed insts skipped by commit
system.cpu.commit.commitNonSpecStalls          176142                       # The number of times commit has been forced to stall to communicate backwards
system.cpu.commit.branchMispredicts           1783411                       # The number of times a branch was mispredicted
system.cpu.commit.numCommittedDist::samples    237610621                       # Number of insts commited each cycle
system.cpu.commit.numCommittedDist::mean     1.315482                       # Number of insts commited each cycle
system.cpu.commit.numCommittedDist::stdev     1.582327                       # Number of insts commited each cycle
system.cpu.commit.numCommittedDist::underflows            0      0.00%      0.00% # Number of insts commited each cycle
system.cpu.commit.numCommittedDist::0       115791216     48.73%     48.73% # Number of insts commited each cycle
system.cpu.commit.numCommittedDist::1        39575080     16.66%     65.39% # Number of insts commited each cycle
system.cpu.commit.numCommittedDist::2        21238965      8.94%     74.33% # Number of insts commited each cycle
system.cpu.commit.numCommittedDist::3        13501865      5.68%     80.01% # Number of insts commited each cycle
system.cpu.commit.numCommittedDist::4        47503495     19.99%    100.00% # Number of insts commited each cycle
system.cpu.commit.numCommittedDist::overflows            0      0.00%    100.00% # Number of insts commited each cycle
system.cpu.commit.numCommittedDist::min_value            0                       # Number of insts commited each cycle
system.cpu.commit.numCommittedDist::max_value            4                       # Number of insts commited each cycle
system.cpu.commit.numCommittedDist::total    237610621                       # Number of insts commited each cycle
system.cpu.commit.instsCommitted            261355252                       # Number of instructions committed
system.cpu.commit.opsCommitted              312572585                       # Number of ops (including micro ops) committed
system.cpu.commit.memRefs                    98809553                       # Number of memory references committed
system.cpu.commit.loads                      62331783                       # Number of loads committed
system.cpu.commit.amos                              0                       # Number of atomic instructions committed
system.cpu.commit.membars                      172889                       # Number of memory barriers committed
system.cpu.commit.branches                   31807263                       # Number of branches committed
system.cpu.commit.vector                     54636285                       # Number of committed Vector instructions.
system.cpu.commit.floating                          0                       # Number of committed floating point instructions.
system.cpu.commit.integer                   252033072                       # Number of committed integer instructions.
system.cpu.commit.functionCalls               2271524                       # Number of function calls committed.
system.cpu.commit.committedInstType_0::No_OpClass      4622819      1.48%      1.48% # Class of committed instruction
system.cpu.commit.committedInstType_0::IntAlu    169455971     54.21%     55.69% # Class of committed instruction
system.cpu.commit.committedInstType_0::IntMult      1797855      0.58%     56.27% # Class of committed instruction
system.cpu.commit.committedInstType_0::IntDiv        91417      0.03%     56.30% # Class of committed instruction
system.cpu.commit.committedInstType_0::FloatAdd          604      0.00%     56.30% # Class of committed instruction
system.cpu.commit.committedInstType_0::FloatCmp            4      0.00%     56.30% # Class of committed instruction
system.cpu.commit.committedInstType_0::FloatCvt          605      0.00%     56.30% # Class of committed instruction
system.cpu.commit.committedInstType_0::FloatMult            0      0.00%     56.30% # Class of committed instruction
system.cpu.commit.committedInstType_0::FloatMultAcc            0      0.00%     56.30% # Class of committed instruction
system.cpu.commit.committedInstType_0::FloatDiv          606      0.00%     56.30% # Class of committed instruction
system.cpu.commit.committedInstType_0::FloatMisc         6515      0.00%     56.30% # Class of committed instruction
system.cpu.commit.committedInstType_0::FloatSqrt            0      0.00%     56.30% # Class of committed instruction
system.cpu.commit.committedInstType_0::SimdAdd     15769919      5.05%     61.34% # Class of committed instruction
system.cpu.commit.committedInstType_0::SimdAddAcc      3381077      1.08%     62.43% # Class of committed instruction
system.cpu.commit.committedInstType_0::SimdAlu      5207849      1.67%     64.09% # Class of committed instruction
system.cpu.commit.committedInstType_0::SimdCmp      1592821      0.51%     64.60% # Class of committed instruction
system.cpu.commit.committedInstType_0::SimdCvt            1      0.00%     64.60% # Class of committed instruction
system.cpu.commit.committedInstType_0::SimdMisc      4483099      1.43%     66.04% # Class of committed instruction
system.cpu.commit.committedInstType_0::SimdMult       408442      0.13%     66.17% # Class of committed instruction
system.cpu.commit.committedInstType_0::SimdMultAcc      2870682      0.92%     67.09% # Class of committed instruction
system.cpu.commit.committedInstType_0::SimdShift      4072746      1.30%     68.39% # Class of committed instruction
system.cpu.commit.committedInstType_0::SimdShiftAcc            0      0.00%     68.39% # Class of committed instruction
system.cpu.commit.committedInstType_0::SimdDiv            0      0.00%     68.39% # Class of committed instruction
system.cpu.commit.committedInstType_0::SimdSqrt            0      0.00%     68.39% # Class of committed instruction
system.cpu.commit.committedInstType_0::SimdFloatAdd            0      0.00%     68.39% # Class of committed instruction
system.cpu.commit.committedInstType_0::SimdFloatAlu            0      0.00%     68.39% # Class of committed instruction
system.cpu.commit.committedInstType_0::SimdFloatCmp            0      0.00%     68.39% # Class of committed instruction
system.cpu.commit.committedInstType_0::SimdFloatCvt            0      0.00%     68.39% # Class of committed instruction
system.cpu.commit.committedInstType_0::SimdFloatDiv            0      0.00%     68.39% # Class of committed instruction
system.cpu.commit.committedInstType_0::SimdFloatMisc            0      0.00%     68.39% # Class of committed instruction
system.cpu.commit.committedInstType_0::SimdFloatMult            0      0.00%     68.39% # Class of committed instruction
system.cpu.commit.committedInstType_0::SimdFloatMultAcc            0      0.00%     68.39% # Class of committed instruction
system.cpu.commit.committedInstType_0::SimdFloatSqrt            0      0.00%     68.39% # Class of committed instruction
system.cpu.commit.committedInstType_0::SimdReduceAdd            0      0.00%     68.39% # Class of committed instruction
system.cpu.commit.committedInstType_0::SimdReduceAlu            0      0.00%     68.39% # Class of committed instruction
system.cpu.commit.committedInstType_0::SimdReduceCmp            0      0.00%     68.39% # Class of committed instruction
system.cpu.commit.committedInstType_0::SimdFloatReduceAdd            0      0.00%     68.39% # Class of committed instruction
system.cpu.commit.committedInstType_0::SimdFloatReduceCmp            0      0.00%     68.39% # Class of committed instruction
system.cpu.commit.committedInstType_0::SimdAes            0      0.00%     68.39% # Class of committed instruction
system.cpu.commit.committedInstType_0::SimdAesMix            0      0.00%     68.39% # Class of committed instruction
system.cpu.commit.committedInstType_0::SimdSha1Hash            0      0.00%     68.39% # Class of committed instruction
system.cpu.commit.committedInstType_0::SimdSha1Hash2            0      0.00%     68.39% # Class of committed instruction
system.cpu.commit.committedInstType_0::SimdSha256Hash            0      0.00%     68.39% # Class of committed instruction
system.cpu.commit.committedInstType_0::SimdSha256Hash2            0      0.00%     68.39% # Class of committed instruction
system.cpu.commit.committedInstType_0::SimdShaSigma2            0      0.00%     68.39% # Class of committed instruction
system.cpu.commit.committedInstType_0::SimdShaSigma3            0      0.00%     68.39% # Class of committed instruction
system.cpu.commit.committedInstType_0::SimdPredAlu            0      0.00%     68.39% # Class of committed instruction
system.cpu.commit.committedInstType_0::MemRead     62331783     19.94%     88.33% # Class of committed instruction
system.cpu.commit.committedInstType_0::MemWrite     36477770     11.67%    100.00% # Class of committed instruction
system.cpu.commit.committedInstType_0::FloatMemRead            0      0.00%    100.00% # Class of committed instruction
system.cpu.commit.committedInstType_0::FloatMemWrite            0      0.00%    100.00% # Class of committed instruction
system.cpu.commit.committedInstType_0::IprAccess            0      0.00%    100.00% # Class of committed instruction
system.cpu.commit.committedInstType_0::InstPrefetch            0      0.00%    100.00% # Class of committed instruction
system.cpu.commit.committedInstType_0::total    312572585                       # Class of committed instruction
system.cpu.commit.commitEligibleSamples      47503495                       # number cycles where commit BW limit reached
system.cpu.dcache.demand_hits::.cpu.data     98488902                       # number of demand (read+write) hits
system.cpu.dcache.demand_hits::total         98488902                       # number of demand (read+write) hits
system.cpu.dcache.overall_hits::.cpu.data     98575713                       # number of overall hits
system.cpu.dcache.overall_hits::total        98575713                       # number of overall hits
system.cpu.dcache.demand_misses::.cpu.data      2690801                       # number of demand (read+write) misses
system.cpu.dcache.demand_misses::total        2690801                       # number of demand (read+write) misses
system.cpu.dcache.overall_misses::.cpu.data      2693940                       # number of overall misses
system.cpu.dcache.overall_misses::total       2693940                       # number of overall misses
system.cpu.dcache.demand_miss_latency::.cpu.data  53569965231                       # number of demand (read+write) miss cycles
system.cpu.dcache.demand_miss_latency::total  53569965231                       # number of demand (read+write) miss cycles
system.cpu.dcache.overall_miss_latency::.cpu.data  53569965231                       # number of overall miss cycles
system.cpu.dcache.overall_miss_latency::total  53569965231                       # number of overall miss cycles
system.cpu.dcache.demand_accesses::.cpu.data    101179703                       # number of demand (read+write) accesses
system.cpu.dcache.demand_accesses::total    101179703                       # number of demand (read+write) accesses
system.cpu.dcache.overall_accesses::.cpu.data    101269653                       # number of overall (read+write) accesses
system.cpu.dcache.overall_accesses::total    101269653                       # number of overall (read+write) accesses
system.cpu.dcache.demand_miss_rate::.cpu.data     0.026594                       # miss rate for demand accesses
system.cpu.dcache.demand_miss_rate::total     0.026594                       # miss rate for demand accesses
system.cpu.dcache.overall_miss_rate::.cpu.data     0.026602                       # miss rate for overall accesses
system.cpu.dcache.overall_miss_rate::total     0.026602                       # miss rate for overall accesses
system.cpu.dcache.demand_avg_miss_latency::.cpu.data 19908.557055                       # average overall miss latency
system.cpu.dcache.demand_avg_miss_latency::total 19908.557055                       # average overall miss latency
system.cpu.dcache.overall_avg_miss_latency::.cpu.data 19885.359448                       # average overall miss latency
system.cpu.dcache.overall_avg_miss_latency::total 19885.359448                       # average overall miss latency
system.cpu.dcache.blocked_cycles::no_mshrs       751148                       # number of cycles access was blocked
system.cpu.dcache.blocked_cycles::no_targets        54254                       # number of cycles access was blocked
system.cpu.dcache.blocked::no_mshrs            116282                       # number of cycles access was blocked
system.cpu.dcache.blocked::no_targets             742                       # number of cycles access was blocked
system.cpu.dcache.avg_blocked_cycles::no_mshrs     6.459710                       # average number of cycles each access was blocked
system.cpu.dcache.avg_blocked_cycles::no_targets    73.118598                       # average number of cycles each access was blocked
system.cpu.dcache.unused_prefetches            105737                       # number of HardPF blocks evicted w/o reference
system.cpu.dcache.writebacks::.writebacks      1339743                       # number of writebacks
system.cpu.dcache.writebacks::total           1339743                       # number of writebacks
system.cpu.dcache.demand_mshr_hits::.cpu.data      1501224                       # number of demand (read+write) MSHR hits
system.cpu.dcache.demand_mshr_hits::total      1501224                       # number of demand (read+write) MSHR hits
system.cpu.dcache.overall_mshr_hits::.cpu.data      1501224                       # number of overall MSHR hits
system.cpu.dcache.overall_mshr_hits::total      1501224                       # number of overall MSHR hits
system.cpu.dcache.demand_mshr_misses::.cpu.data      1189577                       # number of demand (read+write) MSHR misses
system.cpu.dcache.demand_mshr_misses::total      1189577                       # number of demand (read+write) MSHR misses
system.cpu.dcache.overall_mshr_misses::.cpu.data      1192716                       # number of overall MSHR misses
system.cpu.dcache.overall_mshr_misses::.cpu.dcache.prefetcher       490872                       # number of overall MSHR misses
system.cpu.dcache.overall_mshr_misses::total      1683588                       # number of overall MSHR misses
system.cpu.dcache.demand_mshr_miss_latency::.cpu.data  25668151416                       # number of demand (read+write) MSHR miss cycles
system.cpu.dcache.demand_mshr_miss_latency::total  25668151416                       # number of demand (read+write) MSHR miss cycles
system.cpu.dcache.overall_mshr_miss_latency::.cpu.data  25690800448                       # number of overall MSHR miss cycles
system.cpu.dcache.overall_mshr_miss_latency::.cpu.dcache.prefetcher  13357223720                       # number of overall MSHR miss cycles
system.cpu.dcache.overall_mshr_miss_latency::total  39048024168                       # number of overall MSHR miss cycles
system.cpu.dcache.demand_mshr_miss_rate::.cpu.data     0.011757                       # mshr miss rate for demand accesses
system.cpu.dcache.demand_mshr_miss_rate::total     0.011757                       # mshr miss rate for demand accesses
system.cpu.dcache.overall_mshr_miss_rate::.cpu.data     0.011778                       # mshr miss rate for overall accesses
system.cpu.dcache.overall_mshr_miss_rate::.cpu.dcache.prefetcher          inf                       # mshr miss rate for overall accesses
system.cpu.dcache.overall_mshr_miss_rate::total     0.016625                       # mshr miss rate for overall accesses
system.cpu.dcache.demand_avg_mshr_miss_latency::.cpu.data 21577.545141                       # average overall mshr miss latency
system.cpu.dcache.demand_avg_mshr_miss_latency::total 21577.545141                       # average overall mshr miss latency
system.cpu.dcache.overall_avg_mshr_miss_latency::.cpu.data 21539.746635                       # average overall mshr miss latency
system.cpu.dcache.overall_avg_mshr_miss_latency::.cpu.dcache.prefetcher 27211.215388                       # average overall mshr miss latency
system.cpu.dcache.overall_avg_mshr_miss_latency::total 23193.337187                       # average overall mshr miss latency
system.cpu.dcache.replacements                1543965                       # number of replacements
system.cpu.dcache.ReadReq_hits::.cpu.data     63928204                       # number of ReadReq hits
system.cpu.dcache.ReadReq_hits::total        63928204                       # number of ReadReq hits
system.cpu.dcache.ReadReq_misses::.cpu.data       842811                       # number of ReadReq misses
system.cpu.dcache.ReadReq_misses::total        842811                       # number of ReadReq misses
system.cpu.dcache.ReadReq_miss_latency::.cpu.data  12185785164                       # number of ReadReq miss cycles
system.cpu.dcache.ReadReq_miss_latency::total  12185785164                       # number of ReadReq miss cycles
system.cpu.dcache.ReadReq_accesses::.cpu.data     64771015                       # number of ReadReq accesses(hits+misses)
system.cpu.dcache.ReadReq_accesses::total     64771015                       # number of ReadReq accesses(hits+misses)
system.cpu.dcache.ReadReq_miss_rate::.cpu.data     0.013012                       # miss rate for ReadReq accesses
system.cpu.dcache.ReadReq_miss_rate::total     0.013012                       # miss rate for ReadReq accesses
system.cpu.dcache.ReadReq_avg_miss_latency::.cpu.data 14458.502753                       # average ReadReq miss latency
system.cpu.dcache.ReadReq_avg_miss_latency::total 14458.502753                       # average ReadReq miss latency
system.cpu.dcache.ReadReq_mshr_hits::.cpu.data       282318                       # number of ReadReq MSHR hits
system.cpu.dcache.ReadReq_mshr_hits::total       282318                       # number of ReadReq MSHR hits
system.cpu.dcache.ReadReq_mshr_misses::.cpu.data       560493                       # number of ReadReq MSHR misses
system.cpu.dcache.ReadReq_mshr_misses::total       560493                       # number of ReadReq MSHR misses
system.cpu.dcache.ReadReq_mshr_miss_latency::.cpu.data   7227637788                       # number of ReadReq MSHR miss cycles
system.cpu.dcache.ReadReq_mshr_miss_latency::total   7227637788                       # number of ReadReq MSHR miss cycles
system.cpu.dcache.ReadReq_mshr_miss_rate::.cpu.data     0.008653                       # mshr miss rate for ReadReq accesses
system.cpu.dcache.ReadReq_mshr_miss_rate::total     0.008653                       # mshr miss rate for ReadReq accesses
system.cpu.dcache.ReadReq_avg_mshr_miss_latency::.cpu.data 12895.143718                       # average ReadReq mshr miss latency
system.cpu.dcache.ReadReq_avg_mshr_miss_latency::total 12895.143718                       # average ReadReq mshr miss latency
system.cpu.dcache.WriteReq_hits::.cpu.data     34489211                       # number of WriteReq hits
system.cpu.dcache.WriteReq_hits::total       34489211                       # number of WriteReq hits
system.cpu.dcache.WriteReq_misses::.cpu.data      1632270                       # number of WriteReq misses
system.cpu.dcache.WriteReq_misses::total      1632270                       # number of WriteReq misses
system.cpu.dcache.WriteReq_miss_latency::.cpu.data  31548980385                       # number of WriteReq miss cycles
system.cpu.dcache.WriteReq_miss_latency::total  31548980385                       # number of WriteReq miss cycles
system.cpu.dcache.WriteReq_accesses::.cpu.data     36121481                       # number of WriteReq accesses(hits+misses)
system.cpu.dcache.WriteReq_accesses::total     36121481                       # number of WriteReq accesses(hits+misses)
system.cpu.dcache.WriteReq_miss_rate::.cpu.data     0.045188                       # miss rate for WriteReq accesses
system.cpu.dcache.WriteReq_miss_rate::total     0.045188                       # miss rate for WriteReq accesses
system.cpu.dcache.WriteReq_avg_miss_latency::.cpu.data 19328.285385                       # average WriteReq miss latency
system.cpu.dcache.WriteReq_avg_miss_latency::total 19328.285385                       # average WriteReq miss latency
system.cpu.dcache.WriteReq_mshr_hits::.cpu.data      1138961                       # number of WriteReq MSHR hits
system.cpu.dcache.WriteReq_mshr_hits::total      1138961                       # number of WriteReq MSHR hits
system.cpu.dcache.WriteReq_mshr_misses::.cpu.data       493309                       # number of WriteReq MSHR misses
system.cpu.dcache.WriteReq_mshr_misses::total       493309                       # number of WriteReq MSHR misses
system.cpu.dcache.WriteReq_mshr_miss_latency::.cpu.data  12308857157                       # number of WriteReq MSHR miss cycles
system.cpu.dcache.WriteReq_mshr_miss_latency::total  12308857157                       # number of WriteReq MSHR miss cycles
system.cpu.dcache.WriteReq_mshr_miss_rate::.cpu.data     0.013657                       # mshr miss rate for WriteReq accesses
system.cpu.dcache.WriteReq_mshr_miss_rate::total     0.013657                       # mshr miss rate for WriteReq accesses
system.cpu.dcache.WriteReq_avg_mshr_miss_latency::.cpu.data 24951.616851                       # average WriteReq mshr miss latency
system.cpu.dcache.WriteReq_avg_mshr_miss_latency::total 24951.616851                       # average WriteReq mshr miss latency
system.cpu.dcache.SoftPFReq_hits::.cpu.data        86811                       # number of SoftPFReq hits
system.cpu.dcache.SoftPFReq_hits::total         86811                       # number of SoftPFReq hits
system.cpu.dcache.SoftPFReq_misses::.cpu.data         3139                       # number of SoftPFReq misses
system.cpu.dcache.SoftPFReq_misses::total         3139                       # number of SoftPFReq misses
system.cpu.dcache.SoftPFReq_accesses::.cpu.data        89950                       # number of SoftPFReq accesses(hits+misses)
system.cpu.dcache.SoftPFReq_accesses::total        89950                       # number of SoftPFReq accesses(hits+misses)
system.cpu.dcache.SoftPFReq_miss_rate::.cpu.data     0.034897                       # miss rate for SoftPFReq accesses
system.cpu.dcache.SoftPFReq_miss_rate::total     0.034897                       # miss rate for SoftPFReq accesses
system.cpu.dcache.SoftPFReq_mshr_misses::.cpu.data         3139                       # number of SoftPFReq MSHR misses
system.cpu.dcache.SoftPFReq_mshr_misses::total         3139                       # number of SoftPFReq MSHR misses
system.cpu.dcache.SoftPFReq_mshr_miss_latency::.cpu.data     22649032                       # number of SoftPFReq MSHR miss cycles
system.cpu.dcache.SoftPFReq_mshr_miss_latency::total     22649032                       # number of SoftPFReq MSHR miss cycles
system.cpu.dcache.SoftPFReq_mshr_miss_rate::.cpu.data     0.034897                       # mshr miss rate for SoftPFReq accesses
system.cpu.dcache.SoftPFReq_mshr_miss_rate::total     0.034897                       # mshr miss rate for SoftPFReq accesses
system.cpu.dcache.SoftPFReq_avg_mshr_miss_latency::.cpu.data  7215.365403                       # average SoftPFReq mshr miss latency
system.cpu.dcache.SoftPFReq_avg_mshr_miss_latency::total  7215.365403                       # average SoftPFReq mshr miss latency
system.cpu.dcache.HardPFReq_mshr_misses::.cpu.dcache.prefetcher       490872                       # number of HardPFReq MSHR misses
system.cpu.dcache.HardPFReq_mshr_misses::total       490872                       # number of HardPFReq MSHR misses
system.cpu.dcache.HardPFReq_mshr_miss_latency::.cpu.dcache.prefetcher  13357223720                       # number of HardPFReq MSHR miss cycles
system.cpu.dcache.HardPFReq_mshr_miss_latency::total  13357223720                       # number of HardPFReq MSHR miss cycles
system.cpu.dcache.HardPFReq_mshr_miss_rate::.cpu.dcache.prefetcher          inf                       # mshr miss rate for HardPFReq accesses
system.cpu.dcache.HardPFReq_mshr_miss_rate::total          inf                       # mshr miss rate for HardPFReq accesses
system.cpu.dcache.HardPFReq_avg_mshr_miss_latency::.cpu.dcache.prefetcher 27211.215388                       # average HardPFReq mshr miss latency
system.cpu.dcache.HardPFReq_avg_mshr_miss_latency::total 27211.215388                       # average HardPFReq mshr miss latency
system.cpu.dcache.WriteLineReq_hits::.cpu.data        71487                       # number of WriteLineReq hits
system.cpu.dcache.WriteLineReq_hits::total        71487                       # number of WriteLineReq hits
system.cpu.dcache.WriteLineReq_misses::.cpu.data       215720                       # number of WriteLineReq misses
system.cpu.dcache.WriteLineReq_misses::total       215720                       # number of WriteLineReq misses
system.cpu.dcache.WriteLineReq_miss_latency::.cpu.data   9835199682                       # number of WriteLineReq miss cycles
system.cpu.dcache.WriteLineReq_miss_latency::total   9835199682                       # number of WriteLineReq miss cycles
system.cpu.dcache.WriteLineReq_accesses::.cpu.data       287207                       # number of WriteLineReq accesses(hits+misses)
system.cpu.dcache.WriteLineReq_accesses::total       287207                       # number of WriteLineReq accesses(hits+misses)
system.cpu.dcache.WriteLineReq_miss_rate::.cpu.data     0.751096                       # miss rate for WriteLineReq accesses
system.cpu.dcache.WriteLineReq_miss_rate::total     0.751096                       # miss rate for WriteLineReq accesses
system.cpu.dcache.WriteLineReq_avg_miss_latency::.cpu.data 45592.433163                       # average WriteLineReq miss latency
system.cpu.dcache.WriteLineReq_avg_miss_latency::total 45592.433163                       # average WriteLineReq miss latency
system.cpu.dcache.WriteLineReq_mshr_hits::.cpu.data        79945                       # number of WriteLineReq MSHR hits
system.cpu.dcache.WriteLineReq_mshr_hits::total        79945                       # number of WriteLineReq MSHR hits
system.cpu.dcache.WriteLineReq_mshr_misses::.cpu.data       135775                       # number of WriteLineReq MSHR misses
system.cpu.dcache.WriteLineReq_mshr_misses::total       135775                       # number of WriteLineReq MSHR misses
system.cpu.dcache.WriteLineReq_mshr_miss_latency::.cpu.data   6131656471                       # number of WriteLineReq MSHR miss cycles
system.cpu.dcache.WriteLineReq_mshr_miss_latency::total   6131656471                       # number of WriteLineReq MSHR miss cycles
system.cpu.dcache.WriteLineReq_mshr_miss_rate::.cpu.data     0.472743                       # mshr miss rate for WriteLineReq accesses
system.cpu.dcache.WriteLineReq_mshr_miss_rate::total     0.472743                       # mshr miss rate for WriteLineReq accesses
system.cpu.dcache.WriteLineReq_avg_mshr_miss_latency::.cpu.data 45160.423281                       # average WriteLineReq mshr miss latency
system.cpu.dcache.WriteLineReq_avg_mshr_miss_latency::total 45160.423281                       # average WriteLineReq mshr miss latency
system.cpu.dcache.LoadLockedReq_hits::.cpu.data       172906                       # number of LoadLockedReq hits
system.cpu.dcache.LoadLockedReq_hits::total       172906                       # number of LoadLockedReq hits
system.cpu.dcache.LoadLockedReq_misses::.cpu.data          296                       # number of LoadLockedReq misses
system.cpu.dcache.LoadLockedReq_misses::total          296                       # number of LoadLockedReq misses
system.cpu.dcache.LoadLockedReq_miss_latency::.cpu.data      5762456                       # number of LoadLockedReq miss cycles
system.cpu.dcache.LoadLockedReq_miss_latency::total      5762456                       # number of LoadLockedReq miss cycles
system.cpu.dcache.LoadLockedReq_accesses::.cpu.data       173202                       # number of LoadLockedReq accesses(hits+misses)
system.cpu.dcache.LoadLockedReq_accesses::total       173202                       # number of LoadLockedReq accesses(hits+misses)
system.cpu.dcache.LoadLockedReq_miss_rate::.cpu.data     0.001709                       # miss rate for LoadLockedReq accesses
system.cpu.dcache.LoadLockedReq_miss_rate::total     0.001709                       # miss rate for LoadLockedReq accesses
system.cpu.dcache.LoadLockedReq_avg_miss_latency::.cpu.data 19467.756757                       # average LoadLockedReq miss latency
system.cpu.dcache.LoadLockedReq_avg_miss_latency::total 19467.756757                       # average LoadLockedReq miss latency
system.cpu.dcache.LoadLockedReq_mshr_hits::.cpu.data          291                       # number of LoadLockedReq MSHR hits
system.cpu.dcache.LoadLockedReq_mshr_hits::total          291                       # number of LoadLockedReq MSHR hits
system.cpu.dcache.LoadLockedReq_mshr_misses::.cpu.data            5                       # number of LoadLockedReq MSHR misses
system.cpu.dcache.LoadLockedReq_mshr_misses::total            5                       # number of LoadLockedReq MSHR misses
system.cpu.dcache.LoadLockedReq_mshr_miss_latency::.cpu.data       452200                       # number of LoadLockedReq MSHR miss cycles
system.cpu.dcache.LoadLockedReq_mshr_miss_latency::total       452200                       # number of LoadLockedReq MSHR miss cycles
system.cpu.dcache.LoadLockedReq_mshr_miss_rate::.cpu.data     0.000029                       # mshr miss rate for LoadLockedReq accesses
system.cpu.dcache.LoadLockedReq_mshr_miss_rate::total     0.000029                       # mshr miss rate for LoadLockedReq accesses
system.cpu.dcache.LoadLockedReq_avg_mshr_miss_latency::.cpu.data        90440                       # average LoadLockedReq mshr miss latency
system.cpu.dcache.LoadLockedReq_avg_mshr_miss_latency::total        90440                       # average LoadLockedReq mshr miss latency
system.cpu.dcache.StoreCondReq_hits::.cpu.data       172701                       # number of StoreCondReq hits
system.cpu.dcache.StoreCondReq_hits::total       172701                       # number of StoreCondReq hits
system.cpu.dcache.StoreCondReq_misses::.cpu.data          187                       # number of StoreCondReq misses
system.cpu.dcache.StoreCondReq_misses::total          187                       # number of StoreCondReq misses
system.cpu.dcache.StoreCondReq_miss_latency::.cpu.data      1691228                       # number of StoreCondReq miss cycles
system.cpu.dcache.StoreCondReq_miss_latency::total      1691228                       # number of StoreCondReq miss cycles
system.cpu.dcache.StoreCondReq_accesses::.cpu.data       172888                       # number of StoreCondReq accesses(hits+misses)
system.cpu.dcache.StoreCondReq_accesses::total       172888                       # number of StoreCondReq accesses(hits+misses)
system.cpu.dcache.StoreCondReq_miss_rate::.cpu.data     0.001082                       # miss rate for StoreCondReq accesses
system.cpu.dcache.StoreCondReq_miss_rate::total     0.001082                       # miss rate for StoreCondReq accesses
system.cpu.dcache.StoreCondReq_avg_miss_latency::.cpu.data         9044                       # average StoreCondReq miss latency
system.cpu.dcache.StoreCondReq_avg_miss_latency::total         9044                       # average StoreCondReq miss latency
system.cpu.dcache.StoreCondReq_mshr_misses::.cpu.data          187                       # number of StoreCondReq MSHR misses
system.cpu.dcache.StoreCondReq_mshr_misses::total          187                       # number of StoreCondReq MSHR misses
system.cpu.dcache.StoreCondReq_mshr_miss_latency::.cpu.data      1335180                       # number of StoreCondReq MSHR miss cycles
system.cpu.dcache.StoreCondReq_mshr_miss_latency::total      1335180                       # number of StoreCondReq MSHR miss cycles
system.cpu.dcache.StoreCondReq_mshr_miss_rate::.cpu.data     0.001082                       # mshr miss rate for StoreCondReq accesses
system.cpu.dcache.StoreCondReq_mshr_miss_rate::total     0.001082                       # mshr miss rate for StoreCondReq accesses
system.cpu.dcache.StoreCondReq_avg_mshr_miss_latency::.cpu.data         7140                       # average StoreCondReq mshr miss latency
system.cpu.dcache.StoreCondReq_avg_mshr_miss_latency::total         7140                       # average StoreCondReq mshr miss latency
system.cpu.dcache.power_state.pwrStateResidencyTicks::UNDEFINED 118204828672                       # Cumulative time (in ticks) in various power states
system.cpu.dcache.prefetcher.pfIssued         1448829                       # number of hwpf issued
system.cpu.dcache.prefetcher.pfIdentified      2758887                       # number of prefetch candidates identified
system.cpu.dcache.prefetcher.pfBufferHit       812240                       # number of redundant prefetches already in prefetch queue
system.cpu.dcache.prefetcher.pfInCache              0                       # number of redundant prefetches already in cache/mshr dropped
system.cpu.dcache.prefetcher.pfRemovedFull            0                       # number of prefetches dropped due to prefetch queue size
system.cpu.dcache.prefetcher.pfSpanPage        595501                       # number of prefetches that crossed the page
system.cpu.dcache.prefetcher.power_state.pwrStateResidencyTicks::UNDEFINED 118204828672                       # Cumulative time (in ticks) in various power states
system.cpu.dcache.tags.tagsinuse          2047.239643                       # Cycle average of tags in use
system.cpu.dcache.tags.total_refs           100753406                       # Total number of references to valid blocks.
system.cpu.dcache.tags.sampled_refs           1546013                       # Sample count of references to valid blocks.
system.cpu.dcache.tags.avg_refs             65.169831                       # Average number of references to valid blocks.
system.cpu.dcache.tags.warmup_cycle            283220                       # Cycle when the warmup percentage was hit.
system.cpu.dcache.tags.occ_blocks::.cpu.data  1370.782646                       # Average occupied blocks per requestor
system.cpu.dcache.tags.occ_blocks::.cpu.dcache.prefetcher   676.456996                       # Average occupied blocks per requestor
system.cpu.dcache.tags.occ_percent::.cpu.data     0.669327                       # Average percentage of cache occupancy
system.cpu.dcache.tags.occ_percent::.cpu.dcache.prefetcher     0.330301                       # Average percentage of cache occupancy
system.cpu.dcache.tags.occ_percent::total     0.999629                       # Average percentage of cache occupancy
system.cpu.dcache.tags.occ_task_id_blocks::1022          554                       # Occupied blocks per task id
system.cpu.dcache.tags.occ_task_id_blocks::1024         1494                       # Occupied blocks per task id
system.cpu.dcache.tags.age_task_id_blocks_1022::0            6                       # Occupied blocks per task id
system.cpu.dcache.tags.age_task_id_blocks_1022::1          218                       # Occupied blocks per task id
system.cpu.dcache.tags.age_task_id_blocks_1022::2          330                       # Occupied blocks per task id
system.cpu.dcache.tags.age_task_id_blocks_1024::0           40                       # Occupied blocks per task id
system.cpu.dcache.tags.age_task_id_blocks_1024::1          837                       # Occupied blocks per task id
system.cpu.dcache.tags.age_task_id_blocks_1024::2          606                       # Occupied blocks per task id
system.cpu.dcache.tags.age_task_id_blocks_1024::3            9                       # Occupied blocks per task id
system.cpu.dcache.tags.age_task_id_blocks_1024::4            2                       # Occupied blocks per task id
system.cpu.dcache.tags.occ_task_id_percent::1022     0.270508                       # Percentage of cache occupancy per task id
system.cpu.dcache.tags.occ_task_id_percent::1024     0.729492                       # Percentage of cache occupancy per task id
system.cpu.dcache.tags.tag_accesses         408008985                       # Number of tag accesses
system.cpu.dcache.tags.data_accesses        408008985                       # Number of data accesses
system.cpu.dcache.tags.power_state.pwrStateResidencyTicks::UNDEFINED 118204828672                       # Cumulative time (in ticks) in various power states
system.cpu.decode.idleCycles                 77650512                       # Number of cycles decode is idle
system.cpu.decode.blockedCycles              59873438                       # Number of cycles decode is blocked
system.cpu.decode.runCycles                  80636933                       # Number of cycles decode is running
system.cpu.decode.unblockCycles              21139278                       # Number of cycles decode is unblocking
system.cpu.decode.squashCycles                1808759                       # Number of cycles decode is squashing
system.cpu.decode.branchResolved             16668857                       # Number of times decode resolved a  branch
system.cpu.decode.branchMispred                 38875                       # Number of times decode detected a branch misprediction
system.cpu.decode.decodedInsts              345346311                       # Number of instructions handled by decode
system.cpu.decode.squashedInsts               6701448                       # Number of squashed instructions handled by decode
system.cpu.dtb.instHits                             0                       # ITB inst hits
system.cpu.dtb.instMisses                           0                       # ITB inst misses
system.cpu.dtb.readHits                             0                       # DTB read hits
system.cpu.dtb.readMisses                           0                       # DTB read misses
system.cpu.dtb.writeHits                            0                       # DTB write hits
system.cpu.dtb.writeMisses                          0                       # DTB write misses
system.cpu.dtb.inserts                              0                       # Number of times an entry is inserted into the TLB
system.cpu.dtb.flushTlb                             8                       # Number of times complete TLB was flushed
system.cpu.dtb.flushTlbMva                          0                       # Number of times TLB was flushed by MVA
system.cpu.dtb.flushTlbMvaAsid                      0                       # Number of times TLB was flushed by MVA & ASID
system.cpu.dtb.flushTlbAsid                         0                       # Number of times TLB was flushed by ASID
system.cpu.dtb.flushedEntries                       0                       # Number of entries that have been flushed from TLB
system.cpu.dtb.alignFaults                          0                       # Number of TLB faults due to alignment restrictions
system.cpu.dtb.prefetchFaults                       0                       # Number of TLB faults due to prefetch
system.cpu.dtb.domainFaults                         0                       # Number of TLB faults due to domain restrictions
system.cpu.dtb.permsFaults                          0                       # Number of TLB faults due to permissions restrictions
system.cpu.dtb.readAccesses                         0                       # DTB read accesses
system.cpu.dtb.writeAccesses                        0                       # DTB write accesses
system.cpu.dtb.instAccesses                         0                       # ITB inst accesses
system.cpu.dtb.hits                                 0                       # Total TLB (inst and data) hits
system.cpu.dtb.misses                               0                       # Total TLB (inst and data) misses
system.cpu.dtb.accesses                             0                       # Total TLB (inst and data) accesses
system.cpu.dtb.stage2_mmu.stage2_tlb.instHits            0                       # ITB inst hits
system.cpu.dtb.stage2_mmu.stage2_tlb.instMisses            0                       # ITB inst misses
system.cpu.dtb.stage2_mmu.stage2_tlb.readHits            0                       # DTB read hits
system.cpu.dtb.stage2_mmu.stage2_tlb.readMisses            0                       # DTB read misses
system.cpu.dtb.stage2_mmu.stage2_tlb.writeHits            0                       # DTB write hits
system.cpu.dtb.stage2_mmu.stage2_tlb.writeMisses            0                       # DTB write misses
system.cpu.dtb.stage2_mmu.stage2_tlb.inserts            0                       # Number of times an entry is inserted into the TLB
system.cpu.dtb.stage2_mmu.stage2_tlb.flushTlb            0                       # Number of times complete TLB was flushed
system.cpu.dtb.stage2_mmu.stage2_tlb.flushTlbMva            0                       # Number of times TLB was flushed by MVA
system.cpu.dtb.stage2_mmu.stage2_tlb.flushTlbMvaAsid            0                       # Number of times TLB was flushed by MVA & ASID
system.cpu.dtb.stage2_mmu.stage2_tlb.flushTlbAsid            0                       # Number of times TLB was flushed by ASID
system.cpu.dtb.stage2_mmu.stage2_tlb.flushedEntries            0                       # Number of entries that have been flushed from TLB
system.cpu.dtb.stage2_mmu.stage2_tlb.alignFaults            0                       # Number of TLB faults due to alignment restrictions
system.cpu.dtb.stage2_mmu.stage2_tlb.prefetchFaults            0                       # Number of TLB faults due to prefetch
system.cpu.dtb.stage2_mmu.stage2_tlb.domainFaults            0                       # Number of TLB faults due to domain restrictions
system.cpu.dtb.stage2_mmu.stage2_tlb.permsFaults            0                       # Number of TLB faults due to permissions restrictions
system.cpu.dtb.stage2_mmu.stage2_tlb.readAccesses            0                       # DTB read accesses
system.cpu.dtb.stage2_mmu.stage2_tlb.writeAccesses            0                       # DTB write accesses
system.cpu.dtb.stage2_mmu.stage2_tlb.instAccesses            0                       # ITB inst accesses
system.cpu.dtb.stage2_mmu.stage2_tlb.hits            0                       # Total TLB (inst and data) hits
system.cpu.dtb.stage2_mmu.stage2_tlb.misses            0                       # Total TLB (inst and data) misses
system.cpu.dtb.stage2_mmu.stage2_tlb.accesses            0                       # Total TLB (inst and data) accesses
system.cpu.dtb.stage2_mmu.stage2_tlb.walker.walks            0                       # Table walker walks requested
system.cpu.dtb.stage2_mmu.stage2_tlb.walker.requestOrigin_Requested::Data            0                       # Table walker requests started/completed, data/inst
system.cpu.dtb.stage2_mmu.stage2_tlb.walker.requestOrigin_Requested::Inst            0                       # Table walker requests started/completed, data/inst
system.cpu.dtb.stage2_mmu.stage2_tlb.walker.requestOrigin_Requested::total            0                       # Table walker requests started/completed, data/inst
system.cpu.dtb.stage2_mmu.stage2_tlb.walker.requestOrigin_Completed::Data            0                       # Table walker requests started/completed, data/inst
system.cpu.dtb.stage2_mmu.stage2_tlb.walker.requestOrigin_Completed::Inst            0                       # Table walker requests started/completed, data/inst
system.cpu.dtb.stage2_mmu.stage2_tlb.walker.requestOrigin_Completed::total            0                       # Table walker requests started/completed, data/inst
system.cpu.dtb.stage2_mmu.stage2_tlb.walker.requestOrigin::total            0                       # Table walker requests started/completed, data/inst
system.cpu.dtb.stage2_mmu.stage2_tlb.walker.power_state.pwrStateResidencyTicks::UNDEFINED 118204828672                       # Cumulative time (in ticks) in various power states
system.cpu.dtb.walker.walks                         0                       # Table walker walks requested
system.cpu.dtb.walker.requestOrigin_Requested::Data            0                       # Table walker requests started/completed, data/inst
system.cpu.dtb.walker.requestOrigin_Requested::Inst            0                       # Table walker requests started/completed, data/inst
system.cpu.dtb.walker.requestOrigin_Requested::total            0                       # Table walker requests started/completed, data/inst
system.cpu.dtb.walker.requestOrigin_Completed::Data            0                       # Table walker requests started/completed, data/inst
system.cpu.dtb.walker.requestOrigin_Completed::Inst            0                       # Table walker requests started/completed, data/inst
system.cpu.dtb.walker.requestOrigin_Completed::total            0                       # Table walker requests started/completed, data/inst
system.cpu.dtb.walker.requestOrigin::total            0                       # Table walker requests started/completed, data/inst
system.cpu.dtb.walker.power_state.pwrStateResidencyTicks::UNDEFINED 118204828672                       # Cumulative time (in ticks) in various power states
system.cpu.fetch.icacheStallCycles          104050511                       # Number of cycles fetch is stalled on an Icache miss
system.cpu.fetch.insts                      303464716                       # Number of instructions fetch has processed
system.cpu.fetch.branches                    37676685                       # Number of branches that fetch encountered
system.cpu.fetch.predictedBranches           20851335                       # Number of branches that fetch has predicted taken
system.cpu.fetch.cycles                     135211478                       # Number of cycles fetch has run and was not squashing or blocked
system.cpu.fetch.squashCycles                 3693680                       # Number of cycles fetch has spent squashing
system.cpu.fetch.miscStallCycles                    9                       # Number of cycles fetch has spent waiting on interrupts,or bad addresses, or out of MSHRs
system.cpu.fetch.pendingTrapStallCycles            67                       # Number of stall cycles due to pending traps
system.cpu.fetch.icacheWaitRetryStallCycles           15                       # Number of stall cycles due to full MSHR
system.cpu.fetch.cacheLines                  91589003                       # Number of cache lines fetched
system.cpu.fetch.icacheSquashes                804257                       # Number of outstanding Icache misses that were squashed
system.cpu.fetch.nisnDist::samples          241108920                       # Number of instructions fetched each cycle (Total)
system.cpu.fetch.nisnDist::mean              1.491702                       # Number of instructions fetched each cycle (Total)
system.cpu.fetch.nisnDist::stdev             1.773228                       # Number of instructions fetched each cycle (Total)
system.cpu.fetch.nisnDist::underflows               0      0.00%      0.00% # Number of instructions fetched each cycle (Total)
system.cpu.fetch.nisnDist::0                128780217     53.41%     53.41% # Number of instructions fetched each cycle (Total)
system.cpu.fetch.nisnDist::1                 15533039      6.44%     59.85% # Number of instructions fetched each cycle (Total)
system.cpu.fetch.nisnDist::2                 15872570      6.58%     66.44% # Number of instructions fetched each cycle (Total)
system.cpu.fetch.nisnDist::3                 11307849      4.69%     71.13% # Number of instructions fetched each cycle (Total)
system.cpu.fetch.nisnDist::4                 69615245     28.87%    100.00% # Number of instructions fetched each cycle (Total)
system.cpu.fetch.nisnDist::overflows                0      0.00%    100.00% # Number of instructions fetched each cycle (Total)
system.cpu.fetch.nisnDist::min_value                0                       # Number of instructions fetched each cycle (Total)
system.cpu.fetch.nisnDist::max_value                4                       # Number of instructions fetched each cycle (Total)
system.cpu.fetch.nisnDist::total            241108920                       # Number of instructions fetched each cycle (Total)
system.cpu.fetch.branchRate                  0.151721                       # Number of branch fetches per cycle
system.cpu.fetch.rate                        1.222025                       # Number of inst fetches per cycle
system.cpu.icache.demand_hits::.cpu.inst     91074269                       # number of demand (read+write) hits
system.cpu.icache.demand_hits::total         91074269                       # number of demand (read+write) hits
system.cpu.icache.overall_hits::.cpu.inst     91074269                       # number of overall hits
system.cpu.icache.overall_hits::total        91074269                       # number of overall hits
system.cpu.icache.demand_misses::.cpu.inst       514734                       # number of demand (read+write) misses
system.cpu.icache.demand_misses::total         514734                       # number of demand (read+write) misses
system.cpu.icache.overall_misses::.cpu.inst       514734                       # number of overall misses
system.cpu.icache.overall_misses::total        514734                       # number of overall misses
system.cpu.icache.demand_miss_latency::.cpu.inst  10968307587                       # number of demand (read+write) miss cycles
system.cpu.icache.demand_miss_latency::total  10968307587                       # number of demand (read+write) miss cycles
system.cpu.icache.overall_miss_latency::.cpu.inst  10968307587                       # number of overall miss cycles
system.cpu.icache.overall_miss_latency::total  10968307587                       # number of overall miss cycles
system.cpu.icache.demand_accesses::.cpu.inst     91589003                       # number of demand (read+write) accesses
system.cpu.icache.demand_accesses::total     91589003                       # number of demand (read+write) accesses
system.cpu.icache.overall_accesses::.cpu.inst     91589003                       # number of overall (read+write) accesses
system.cpu.icache.overall_accesses::total     91589003                       # number of overall (read+write) accesses
system.cpu.icache.demand_miss_rate::.cpu.inst     0.005620                       # miss rate for demand accesses
system.cpu.icache.demand_miss_rate::total     0.005620                       # miss rate for demand accesses
system.cpu.icache.overall_miss_rate::.cpu.inst     0.005620                       # miss rate for overall accesses
system.cpu.icache.overall_miss_rate::total     0.005620                       # miss rate for overall accesses
system.cpu.icache.demand_avg_miss_latency::.cpu.inst 21308.690677                       # average overall miss latency
system.cpu.icache.demand_avg_miss_latency::total 21308.690677                       # average overall miss latency
system.cpu.icache.overall_avg_miss_latency::.cpu.inst 21308.690677                       # average overall miss latency
system.cpu.icache.overall_avg_miss_latency::total 21308.690677                       # average overall miss latency
system.cpu.icache.blocked_cycles::no_mshrs         1650                       # number of cycles access was blocked
system.cpu.icache.blocked_cycles::no_targets            0                       # number of cycles access was blocked
system.cpu.icache.blocked::no_mshrs                33                       # number of cycles access was blocked
system.cpu.icache.blocked::no_targets               0                       # number of cycles access was blocked
system.cpu.icache.avg_blocked_cycles::no_mshrs           50                       # average number of cycles each access was blocked
system.cpu.icache.avg_blocked_cycles::no_targets          nan                       # average number of cycles each access was blocked
system.cpu.icache.demand_mshr_hits::.cpu.inst        21479                       # number of demand (read+write) MSHR hits
system.cpu.icache.demand_mshr_hits::total        21479                       # number of demand (read+write) MSHR hits
system.cpu.icache.overall_mshr_hits::.cpu.inst        21479                       # number of overall MSHR hits
system.cpu.icache.overall_mshr_hits::total        21479                       # number of overall MSHR hits
[...]
system.mem_ctrl.requestorReadAvgLat::.cpu.inst     36621.33                       # Per-requestor read average memory access latency
system.mem_ctrl.requestorReadAvgLat::.cpu.data     45569.70                       # Per-requestor read average memory access latency
system.mem_ctrl.requestorReadAvgLat::.cpu.dcache.prefetcher    119327.28                       # Per-requestor read average memory access latency
system.mem_ctrl.requestorReadAvgLat::.cpu.l2cache.prefetcher    114842.48                       # Per-requestor read average memory access latency
system.mem_ctrl.requestorWriteAvgLat::.writebacks  52374441.53                       # Per-requestor write average memory access latency
system.mem_ctrl.dram.bytes_read::.cpu.inst       221312                       # Number of bytes read from this memory
system.mem_ctrl.dram.bytes_read::.cpu.data       175232                       # Number of bytes read from this memory
system.mem_ctrl.dram.bytes_read::.cpu.dcache.prefetcher      1010368                       # Number of bytes read from this memory
system.mem_ctrl.dram.bytes_read::.cpu.l2cache.prefetcher       793536                       # Number of bytes read from this memory
system.mem_ctrl.dram.bytes_read::total        2200448                       # Number of bytes read from this memory
system.mem_ctrl.dram.bytes_inst_read::.cpu.inst       221312                       # Number of instructions bytes read from this memory
system.mem_ctrl.dram.bytes_inst_read::total       221312                       # Number of instructions bytes read from this memory
system.mem_ctrl.dram.bytes_written::.writebacks      3344128                       # Number of bytes written to this memory
system.mem_ctrl.dram.bytes_written::total      3344128                       # Number of bytes written to this memory
system.mem_ctrl.dram.num_reads::.cpu.inst         3458                       # Number of read requests responded to by this memory
system.mem_ctrl.dram.num_reads::.cpu.data         2738                       # Number of read requests responded to by this memory
system.mem_ctrl.dram.num_reads::.cpu.dcache.prefetcher        15787                       # Number of read requests responded to by this memory
system.mem_ctrl.dram.num_reads::.cpu.l2cache.prefetcher        12399                       # Number of read requests responded to by this memory
system.mem_ctrl.dram.num_reads::total           34382                       # Number of read requests responded to by this memory
system.mem_ctrl.dram.num_writes::.writebacks        52252                       # Number of write requests responded to by this memory
system.mem_ctrl.dram.num_writes::total          52252                       # Number of write requests responded to by this memory
system.mem_ctrl.dram.bw_read::.cpu.inst       1872275                       # Total read bandwidth from this memory (bytes/s)
system.mem_ctrl.dram.bw_read::.cpu.data       1482444                       # Total read bandwidth from this memory (bytes/s)
system.mem_ctrl.dram.bw_read::.cpu.dcache.prefetcher      8547603                       # Total read bandwidth from this memory (bytes/s)
system.mem_ctrl.dram.bw_read::.cpu.l2cache.prefetcher      6713228                       # Total read bandwidth from this memory (bytes/s)
system.mem_ctrl.dram.bw_read::total          18615551                       # Total read bandwidth from this memory (bytes/s)
system.mem_ctrl.dram.bw_inst_read::.cpu.inst      1872275                       # Instruction read bandwidth from this memory (bytes/s)
system.mem_ctrl.dram.bw_inst_read::total      1872275                       # Instruction read bandwidth from this memory (bytes/s)
system.mem_ctrl.dram.bw_write::.writebacks     28290959                       # Write bandwidth from this memory (bytes/s)
system.mem_ctrl.dram.bw_write::total         28290959                       # Write bandwidth from this memory (bytes/s)
system.mem_ctrl.dram.bw_total::.writebacks     28290959                       # Total bandwidth to/from this memory (bytes/s)
system.mem_ctrl.dram.bw_total::.cpu.inst      1872275                       # Total bandwidth to/from this memory (bytes/s)
system.mem_ctrl.dram.bw_total::.cpu.data      1482444                       # Total bandwidth to/from this memory (bytes/s)
system.mem_ctrl.dram.bw_total::.cpu.dcache.prefetcher      8547603                       # Total bandwidth to/from this memory (bytes/s)
system.mem_ctrl.dram.bw_total::.cpu.l2cache.prefetcher      6713228                       # Total bandwidth to/from this memory (bytes/s)
system.mem_ctrl.dram.bw_total::total         46906510                       # Total bandwidth to/from this memory (bytes/s)
system.mem_ctrl.dram.readBursts                 34382                       # Number of DRAM read bursts
system.mem_ctrl.dram.writeBursts                52233                       # Number of DRAM write bursts
system.mem_ctrl.dram.perBankRdBursts::0          1982                       # Per bank write bursts
system.mem_ctrl.dram.perBankRdBursts::1          2044                       # Per bank write bursts
system.mem_ctrl.dram.perBankRdBursts::2          2056                       # Per bank write bursts
system.mem_ctrl.dram.perBankRdBursts::3          2244                       # Per bank write bursts
system.mem_ctrl.dram.perBankRdBursts::4          2193                       # Per bank write bursts
system.mem_ctrl.dram.perBankRdBursts::5          2155                       # Per bank write bursts
system.mem_ctrl.dram.perBankRdBursts::6          2025                       # Per bank write bursts
system.mem_ctrl.dram.perBankRdBursts::7          2071                       # Per bank write bursts
system.mem_ctrl.dram.perBankRdBursts::8          2342                       # Per bank write bursts
system.mem_ctrl.dram.perBankRdBursts::9          2515                       # Per bank write bursts
system.mem_ctrl.dram.perBankRdBursts::10         2210                       # Per bank write bursts
system.mem_ctrl.dram.perBankRdBursts::11         2097                       # Per bank write bursts
system.mem_ctrl.dram.perBankRdBursts::12         2040                       # Per bank write bursts
system.mem_ctrl.dram.perBankRdBursts::13         2118                       # Per bank write bursts
system.mem_ctrl.dram.perBankRdBursts::14         2207                       # Per bank write bursts
system.mem_ctrl.dram.perBankRdBursts::15         2083                       # Per bank write bursts
system.mem_ctrl.dram.perBankWrBursts::0          3158                       # Per bank write bursts
system.mem_ctrl.dram.perBankWrBursts::1          3179                       # Per bank write bursts
system.mem_ctrl.dram.perBankWrBursts::2          3164                       # Per bank write bursts
system.mem_ctrl.dram.perBankWrBursts::3          3313                       # Per bank write bursts
system.mem_ctrl.dram.perBankWrBursts::4          3137                       # Per bank write bursts
system.mem_ctrl.dram.perBankWrBursts::5          3158                       # Per bank write bursts
system.mem_ctrl.dram.perBankWrBursts::6          3214                       # Per bank write bursts
system.mem_ctrl.dram.perBankWrBursts::7          3229                       # Per bank write bursts
system.mem_ctrl.dram.perBankWrBursts::8          3439                       # Per bank write bursts
system.mem_ctrl.dram.perBankWrBursts::9          3540                       # Per bank write bursts
system.mem_ctrl.dram.perBankWrBursts::10         3442                       # Per bank write bursts
system.mem_ctrl.dram.perBankWrBursts::11         3256                       # Per bank write bursts
system.mem_ctrl.dram.perBankWrBursts::12         3213                       # Per bank write bursts
system.mem_ctrl.dram.perBankWrBursts::13         3303                       # Per bank write bursts
system.mem_ctrl.dram.perBankWrBursts::14         3278                       # Per bank write bursts
system.mem_ctrl.dram.perBankWrBursts::15         3210                       # Per bank write bursts
system.mem_ctrl.dram.totQLat               2914495588                       # Total ticks spent queuing
system.mem_ctrl.dram.totBusLat              171910000                       # Total ticks spent in databus transfers
system.mem_ctrl.dram.totMemAccLat          3559158088                       # Total ticks spent from burst creation until serviced by the DRAM
system.mem_ctrl.dram.avgQLat                 84768.06                       # Average queueing delay per DRAM burst
system.mem_ctrl.dram.avgBusLat                5000.00                       # Average bus latency per DRAM burst
system.mem_ctrl.dram.avgMemAccLat           103518.06                       # Average memory access latency per DRAM burst
system.mem_ctrl.dram.readRowHits                29489                       # Number of row buffer hits during reads
system.mem_ctrl.dram.writeRowHits               42245                       # Number of row buffer hits during writes
system.mem_ctrl.dram.readRowHitRate             85.77                       # Row buffer hit rate for reads
system.mem_ctrl.dram.writeRowHitRate            80.88                       # Row buffer hit rate for writes
system.mem_ctrl.dram.bytesPerActivate::samples        14874                       # Bytes accessed per row activation
system.mem_ctrl.dram.bytesPerActivate::mean   372.653489                       # Bytes accessed per row activation
system.mem_ctrl.dram.bytesPerActivate::gmean   231.436728                       # Bytes accessed per row activation
system.mem_ctrl.dram.bytesPerActivate::stdev   341.844992                       # Bytes accessed per row activation
system.mem_ctrl.dram.bytesPerActivate::0-127         4086     27.47%     27.47% # Bytes accessed per row activation
system.mem_ctrl.dram.bytesPerActivate::128-255         3319     22.31%     49.78% # Bytes accessed per row activation
system.mem_ctrl.dram.bytesPerActivate::256-383         1947     13.09%     62.87% # Bytes accessed per row activation
system.mem_ctrl.dram.bytesPerActivate::384-511         1050      7.06%     69.93% # Bytes accessed per row activation
system.mem_ctrl.dram.bytesPerActivate::512-639          784      5.27%     75.21% # Bytes accessed per row activation
system.mem_ctrl.dram.bytesPerActivate::640-767          810      5.45%     80.65% # Bytes accessed per row activation
system.mem_ctrl.dram.bytesPerActivate::768-895          428      2.88%     83.53% # Bytes accessed per row activation
system.mem_ctrl.dram.bytesPerActivate::896-1023          345      2.32%     85.85% # Bytes accessed per row activation
system.mem_ctrl.dram.bytesPerActivate::1024-1151         2105     14.15%    100.00% # Bytes accessed per row activation
system.mem_ctrl.dram.bytesPerActivate::total        14874                       # Bytes accessed per row activation
system.mem_ctrl.dram.bytesRead                2200448                       # Total number of bytes read from DRAM
system.mem_ctrl.dram.bytesWritten             3342912                       # Total number of bytes written to DRAM
system.mem_ctrl.dram.avgRdBW                18.615551                       # Average DRAM read bandwidth in MiBytes/s
system.mem_ctrl.dram.avgWrBW                28.280672                       # Average DRAM write bandwidth in MiBytes/s
system.mem_ctrl.dram.peakBW                  12800.00                       # Theoretical peak bandwidth in MiByte/s
system.mem_ctrl.dram.busUtil                     0.37                       # Data bus utilization in percentage
system.mem_ctrl.dram.busUtilRead                 0.15                       # Data bus utilization in percentage for reads
system.mem_ctrl.dram.busUtilWrite                0.22                       # Data bus utilization in percentage for writes
system.mem_ctrl.dram.pageHitRate                82.82                       # Row buffer hit rate, read and write combined
system.mem_ctrl.dram.power_state.pwrStateResidencyTicks::UNDEFINED 118204828672                       # Cumulative time (in ticks) in various power states
system.mem_ctrl.dram.rank0.actEnergy         53664240                       # Energy for activate commands per rank (pJ)
system.mem_ctrl.dram.rank0.preEnergy         28515630                       # Energy for precharge commands per rank (pJ)
system.mem_ctrl.dram.rank0.readEnergy       119737800                       # Energy for read commands per rank (pJ)
system.mem_ctrl.dram.rank0.writeEnergy      133381440                       # Energy for write commands per rank (pJ)
system.mem_ctrl.dram.rank0.refreshEnergy 9330849840.000002                       # Energy for refresh commands per rank (pJ)
system.mem_ctrl.dram.rank0.actBackEnergy   3345519240                       # Energy for active background per rank (pJ)
system.mem_ctrl.dram.rank0.preBackEnergy  42573374880                       # Energy for precharge background per rank (pJ)
system.mem_ctrl.dram.rank0.actPowerDownEnergy            0                       # Energy for active power-down per rank (pJ)
system.mem_ctrl.dram.rank0.prePowerDownEnergy            0                       # Energy for precharge power-down per rank (pJ)
system.mem_ctrl.dram.rank0.selfRefreshEnergy            0                       # Energy for self refresh per rank (pJ)
system.mem_ctrl.dram.rank0.totalEnergy    55585043070                       # Total energy per rank (pJ)
system.mem_ctrl.dram.rank0.averagePower    470.243421                       # Core power per rank (mW)
system.mem_ctrl.dram.rank0.totalIdleTime            0                       # Total Idle time Per DRAM Rank
system.mem_ctrl.dram.rank0.pwrStateTime::IDLE 110641468406                       # Time in different power states
system.mem_ctrl.dram.rank0.pwrStateTime::REF   3947060000                       # Time in different power states
system.mem_ctrl.dram.rank0.pwrStateTime::SREF            0                       # Time in different power states
system.mem_ctrl.dram.rank0.pwrStateTime::PRE_PDN            0                       # Time in different power states
system.mem_ctrl.dram.rank0.pwrStateTime::ACT   3616300266                       # Time in different power states
system.mem_ctrl.dram.rank0.pwrStateTime::ACT_PDN            0                       # Time in different power states
system.mem_ctrl.dram.rank1.actEnergy         52586100                       # Energy for activate commands per rank (pJ)
system.mem_ctrl.dram.rank1.preEnergy         27931200                       # Energy for precharge commands per rank (pJ)
system.mem_ctrl.dram.rank1.readEnergy       125749680                       # Energy for read commands per rank (pJ)
system.mem_ctrl.dram.rank1.writeEnergy      139274820                       # Energy for write commands per rank (pJ)
system.mem_ctrl.dram.rank1.refreshEnergy 9330849840.000002                       # Energy for refresh commands per rank (pJ)
system.mem_ctrl.dram.rank1.actBackEnergy   3324273630                       # Energy for active background per rank (pJ)
system.mem_ctrl.dram.rank1.preBackEnergy  42591265920                       # Energy for precharge background per rank (pJ)
system.mem_ctrl.dram.rank1.actPowerDownEnergy            0                       # Energy for active power-down per rank (pJ)
system.mem_ctrl.dram.rank1.prePowerDownEnergy            0                       # Energy for precharge power-down per rank (pJ)
system.mem_ctrl.dram.rank1.selfRefreshEnergy            0                       # Energy for self refresh per rank (pJ)
system.mem_ctrl.dram.rank1.totalEnergy    55591931190                       # Total energy per rank (pJ)
system.mem_ctrl.dram.rank1.averagePower    470.301694                       # Core power per rank (mW)
system.mem_ctrl.dram.rank1.totalIdleTime            0                       # Total Idle time Per DRAM Rank
system.mem_ctrl.dram.rank1.pwrStateTime::IDLE 110688909106                       # Time in different power states
system.mem_ctrl.dram.rank1.pwrStateTime::REF   3947060000                       # Time in different power states
system.mem_ctrl.dram.rank1.pwrStateTime::SREF            0                       # Time in different power states
system.mem_ctrl.dram.rank1.pwrStateTime::PRE_PDN            0                       # Time in different power states
system.mem_ctrl.dram.rank1.pwrStateTime::ACT   3568859566                       # Time in different power states
system.mem_ctrl.dram.rank1.pwrStateTime::ACT_PDN            0                       # Time in different power states
system.mem_ctrl.power_state.pwrStateResidencyTicks::UNDEFINED 118204828672                       # Cumulative time (in ticks) in various power states
system.membus.trans_dist::ReadResp              33046                       # Transaction distribution
system.membus.trans_dist::WritebackDirty        52252                       # Transaction distribution
system.membus.trans_dist::CleanEvict              752                       # Transaction distribution
system.membus.trans_dist::ReadExReq              1336                       # Transaction distribution
system.membus.trans_dist::ReadExResp             1336                       # Transaction distribution
system.membus.trans_dist::ReadSharedReq         33046                       # Transaction distribution
system.membus.trans_dist::InvalidateReq         51439                       # Transaction distribution
system.membus.pkt_count_system.l3cache.mem_side_port::system.mem_ctrl.port       173207                       # Packet count per connected requestor and responder (bytes)
system.membus.pkt_count::total                 173207                       # Packet count per connected requestor and responder (bytes)
system.membus.pkt_size_system.l3cache.mem_side_port::system.mem_ctrl.port      5544576                       # Cumulative packet size per connected requestor and responder (bytes)
system.membus.pkt_size::total                 5544576                       # Cumulative packet size per connected requestor and responder (bytes)
system.membus.snoops                                0                       # Total snoops (count)
system.membus.snoopTraffic                          0                       # Total snoop traffic (bytes)
system.membus.snoop_fanout::samples             85821                       # Request fanout histogram
system.membus.snoop_fanout::mean                    0                       # Request fanout histogram
system.membus.snoop_fanout::stdev                   0                       # Request fanout histogram
system.membus.snoop_fanout::underflows              0      0.00%      0.00% # Request fanout histogram
system.membus.snoop_fanout::0                   85821    100.00%    100.00% # Request fanout histogram
system.membus.snoop_fanout::1                       0      0.00%    100.00% # Request fanout histogram
system.membus.snoop_fanout::overflows               0      0.00%    100.00% # Request fanout histogram
system.membus.snoop_fanout::min_value               0                       # Request fanout histogram
system.membus.snoop_fanout::max_value               0                       # Request fanout histogram
system.membus.snoop_fanout::total               85821                       # Request fanout histogram
system.membus.power_state.pwrStateResidencyTicks::UNDEFINED 118204828672                       # Cumulative time (in ticks) in various power states
system.membus.reqLayer0.occupancy           166611190                       # Layer occupancy (ticks)
system.membus.reqLayer0.utilization               0.1                       # Layer utilization (%)
system.membus.respLayer0.occupancy           89363896                       # Layer occupancy (ticks)
system.membus.respLayer0.utilization              0.1                       # Layer utilization (%)

---------- End Simulation Statistics   ----------
